302
Ca Mg3 C4 O12
Ca    0.000000    0.000000    0.000000
Ca    0.000000    0.000000    7.821200
Ca   -4.751350    8.229579    0.000000
Ca   -4.751350    8.229579    7.821200
Ca    9.502700    0.000000    0.000000
Ca    9.502700    0.000000    7.821200
Ca    4.751350    8.229579    0.000000
Ca    4.751350    8.229579    7.821200
Ca    4.751350    2.743193    2.607067
Ca    0.000000    5.486386    5.214133
Mg    5.172320    0.000000    0.000000
Mg    5.172320    0.000000    7.821200
Mg    0.420970    8.229579    0.000000
Mg    0.420970    8.229579    7.821200
Mg   -2.586160    4.479360    0.000000
Mg   -2.586160    4.479360    7.821200
Mg    6.916540    4.479360    0.000000
Mg    6.916540    4.479360    7.821200
Mg    2.165190    3.750219    0.000000
Mg    2.165190    3.750219    7.821200
Mg    0.420970    2.743193    2.607067
Mg    2.165190    7.222553    2.607067
Mg   -2.586160    6.493412    2.607067
Mg    5.172320    5.486386    5.214133
Mg    2.165190    1.736167    5.214133
Mg    6.916540    1.007026    5.214133
 C    0.000000    0.000000    3.910600
 C   -4.751350    8.229579    3.910600
 C    9.502700    0.000000    3.910600
 C    4.751350    8.229579    3.910600
 C    4.751350    2.743193    6.517667
 C    0.000000    5.486386    1.303533
 C    4.309474    0.000000    3.910600
 C   -0.441876    8.229579    3.910600
 C   -2.154737    3.732114    3.910600
 C    7.347963    3.732114    3.910600
 C    2.596613    4.497465    3.910600
 C   -0.441876    2.743193    6.517667
 C    2.596613    6.475307    6.517667
 C   -2.154737    7.240658    6.517667
 C    4.309474    5.486386    1.303533
 C    2.596613    0.988921    1.303533
 C    7.347963    1.754272    1.303533
 O    8.232189    0.000000    3.910600
 O    3.480839    8.229579    3.910600
 O   -4.116094    7.129285    3.910600
 O    5.386605    7.129285    3.910600
 O    0.635256    1.100295    3.910600
 O    3.480839    2.743193    6.517667
 O    5.386605    1.642898    6.517667
 O    5.386605    3.843488    6.517667
 O   -1.270511    5.486386    1.303533
 O    0.635256    4.386091    1.303533
 O    0.635256    6.586681    1.303533
 O    5.601842    0.000000    3.910600
 O    0.850492    8.229579    3.910600
 O   -2.800921    4.851337    3.910600
 O    6.701779    4.851337    3.910600
 O    1.950429    3.378242    3.910600
 O    0.850492    2.743193    6.517667
 O    1.950429    7.594530    6.517667
 O   -2.800921    6.121435    6.517667
 O    5.601842    5.486386    1.303533
 O    1.950429    2.108144    1.303533
 O    6.701779    0.635049    1.303533
 O    3.697976    1.115108    4.036521
 O    6.688000    2.644987    4.036521
 O    3.868074    4.469485    4.036521
 O   -0.883276    3.760095    3.784679
 O   -1.053374    7.114471    3.784679
 O    1.936650    5.584593    3.784679
 O   -1.053374    3.858301    6.643588
 O    1.936650    5.388180    6.643588
 O   -0.883276    7.212678    6.643588
 O    3.868074    6.503288    6.391745
 O    8.449326    1.628085    6.391745
 O    1.936650    0.098206    6.391745
 O    3.697976    6.601494    1.429455
 O   -2.814700    8.131373    1.429455
 O   -0.883276    1.726291    1.429455
 O    3.868074    1.016902    1.177612
 O    3.697976    4.371278    1.177612
 O    6.688000    2.841399    1.177612
 O   -1.053374   -1.628085    1.429455
 O   -0.883276   -1.726291   -1.429455
 O   -1.053374    1.628085   -1.429455
 O    1.936650   -0.098206    1.429455
 O    1.936650    0.098206   -1.429455
 O   -1.053374   -1.628085    9.250654
 O   -0.883276   -1.726291    6.391745
 O   -1.053374    1.628085    6.391745
 O    1.936650   -0.098206    9.250654
 O   -0.883276    1.726291    9.250654
 O   -5.804724    6.601494    1.429455
 O   -5.634626    6.503288   -1.429455
 O   -5.804724    9.857665   -1.429455
 O   -5.634626    9.955871    1.429455
 O   -2.814700    8.327786   -1.429455
 O   -5.804724    6.601494    9.250654
 O   -5.634626    6.503288    6.391745
 O   -5.804724    9.857665    6.391745
 O   -2.814700    8.131373    9.250654
 O   -5.634626    9.955871    9.250654
 O   -2.814700    8.327786    6.391745
 O    8.449326   -1.628085    1.429455
 O    8.619424   -1.726291   -1.429455
 O    8.449326    1.628085   -1.429455
 O   11.439350   -0.098206    1.429455
 O    8.619424    1.726291    1.429455
 O   11.439350    0.098206   -1.429455
 O    8.449326   -1.628085    9.250654
 O    8.619424   -1.726291    6.391745
 O   11.439350   -0.098206    9.250654
 O    8.619424    1.726291    9.250654
 O   11.439350    0.098206    6.391745
 O    3.868074    6.503288   -1.429455
 O    3.697976    9.857665   -1.429455
 O    6.688000    8.131373    1.429455
 O    3.868074    9.955871    1.429455
 O    6.688000    8.327786   -1.429455
 O    3.697976    6.601494    9.250654
 O    3.697976    9.857665    6.391745
 O    6.688000    8.131373    9.250654
 O    3.868074    9.955871    9.250654
 O    6.688000    8.327786    6.391745
 O    3.868074   -1.016902   -1.177612
 O    5.386605   -1.642898    1.303533
 O    6.701779   -0.635049   -1.303533
 O    5.386605    1.642898   -1.303533
 O    3.868074   -1.016902    6.643588
 O    5.386605   -1.642898    9.124733
 O    3.868074    1.016902    8.998812
 O    6.701779   -0.635049    6.517667
 O    6.701779    0.635049    9.124733
 O   -0.883276    7.212678   -1.177612
 O   -0.883276    9.246481    1.177612
 O    1.950429    7.594530   -1.303533
 O    1.950429    8.864629    1.303533
 O    0.635256    9.872478   -1.303533
 O    0.635256    6.586681    9.124733
 O   -0.883276    9.246481    8.998812
 O    1.950429    8.864629    9.124733
 O    0.635256    9.872478    6.517667
 O   -4.116094    3.843488   -1.303533
 O   -2.814700    2.841399    1.177612
 O   -3.900858    5.486386    1.303533
 O   -1.053374    3.858301   -1.177612
 O   -2.800921    6.121435   -1.303533
 O   -4.116094    3.843488    6.517667
 O   -2.814700    2.841399    8.998812
 O   -3.900858    5.486386    9.124733
 O   -1.270511    5.486386    9.124733
 O    5.386605    3.843488   -1.303533
 O    8.449326    3.858301   -1.177612
 O    6.701779    6.121435   -1.303533
 O    8.232189    5.486386    1.303533
 O    6.688000    2.841399    8.998812
 O    5.601842    5.486386    9.124733
 O    8.449326    3.858301    6.643588
 O    6.701779    6.121435    6.517667
 O    8.232189    5.486386    9.124733
 O    0.850492    2.743193   -1.303533
 O    3.480839    2.743193   -1.303533
 O    1.936650    5.388180   -1.177612
 O    1.950429    2.108144    9.124733
 O    0.635256    4.386091    9.124733
 O    3.697976    4.371278    8.998812
 O   -1.270511    0.000000    3.910600
 O    0.635256   -1.100295    3.910600
 O   -6.021861    8.229579    3.910600
 O   -4.116094    9.329874    3.910600
 O   10.137955   -1.100295    3.910600
 O   10.137955    1.100295    3.910600
 O    5.386605    9.329874    3.910600
 O    3.697976   -1.115108    3.784679
 O   -1.053374    9.344687    4.036521
 O   -2.814700    2.644987    4.036521
 O    8.619424    3.760095    3.784679
 C    9.060824    2.743193    6.517667
 C    2.596613   -0.988921    6.517667
 C   -2.154737    9.218501    1.303533
 C   -2.154737    1.754272    1.303533
 C   -0.441876   -2.743193    1.303533
 C   -2.154737   -1.754272   -1.303533
 C   -0.441876    2.743193   -1.303533
 C    2.596613   -0.988921   -1.303533
 C   -0.441876   -2.743193    9.124733
 C   -2.154737   -1.754272    6.517667
 C    2.596613    0.988921    9.124733
 C   -2.154737    1.754272    9.124733
 C   -5.193225    5.486386    1.303533
 C   -6.906087    6.475307   -1.303533
 C   -5.193225   10.972773   -1.303533
 C   -6.906087    9.983851    1.303533
 C   -2.154737    7.240658   -1.303533
 C   -5.193225    5.486386    9.124733
 C   -6.906087    6.475307    6.517667
 C   -5.193225   10.972773    6.517667
 C   -2.154737    9.218501    9.124733
 C   -6.906087    9.983851    9.124733
 C    9.060824   -2.743193    1.303533
 C    7.347963   -1.754272   -1.303533
 C    9.060824    2.743193   -1.303533
 C   12.099313    0.988921    1.303533
 C   12.099313   -0.988921   -1.303533
 C    9.060824   -2.743193    9.124733
 C    7.347963   -1.754272    6.517667
 C   12.099313    0.988921    9.124733
 C    7.347963    1.754272    9.124733
 C   12.099313   -0.988921    6.517667
 C    2.596613    6.475307   -1.303533
 C    4.309474   10.972773   -1.303533
 C    7.347963    9.218501    1.303533
 C    2.596613    9.983851    1.303533
 C    7.347963    7.240658   -1.303533
 C    4.309474    5.486386    9.124733
 C    4.309474   10.972773    6.517667
 C    7.347963    9.218501    9.124733
 C    2.596613    9.983851    9.124733
 C    7.347963    7.240658    6.517667
 C    4.751350   -2.743193    1.303533
 C    4.751350    2.743193   -1.303533
 C    4.751350   -2.743193    9.124733
 C    0.000000   10.972773   -1.303533
 C    0.000000    5.486386    9.124733
 C    0.000000   10.972773    6.517667
 C   -4.751350    2.743193   -1.303533
 C   -4.751350    2.743193    6.517667
 C    9.502700    5.486386    1.303533
 C    9.502700    5.486386    9.124733
 O   10.353192    2.743193    6.517667
 O    1.950429   -2.108144    6.517667
 O   -2.800921   10.337724    1.303533
 O   -2.800921    0.635049    1.303533
 O   -1.053374   -3.858301    1.177612
 O    0.850492   -2.743193    1.303533
 O   -2.814700   -2.841399   -1.177612
 O   -2.800921   -0.635049   -1.303533
 O    1.950429   -2.108144   -1.303533
 O   -1.053374   -3.858301    8.998812
 O    0.850492   -2.743193    9.124733
 O   -2.814700   -2.841399    6.643588
 O   -2.800921   -0.635049    6.517667
 O   -2.800921    0.635049    9.124733
 O   -5.804724    4.371278    1.177612
 O   -7.566050    5.388180   -1.177612
 O   -7.552271    7.594530   -1.303533
 O   -5.804724   12.087881   -1.177612
 O   -3.900858   10.972773   -1.303533
 O   -7.552271    8.864629    1.303533
 O   -7.566050   11.070979    1.177612
 O   -5.804724    4.371278    8.998812
 O   -7.566050    5.388180    6.643588
 O   -7.552271    7.594530    6.517667
 O   -5.804724   12.087881    6.643588
 O   -3.900858   10.972773    6.517667
 O   -2.800921   10.337724    9.124733
 O   -7.552271    8.864629    9.124733
 O   -7.566050   11.070979    8.998812
 O    8.449326   -3.858301    1.177612
 O   10.353192   -2.743193    1.303533
 O    6.688000   -2.841399   -1.177612
 O   10.353192    2.743193   -1.303533
 O   11.453129    2.108144    1.303533
 O   13.370774    1.016902    1.177612
 O   11.453129   -2.108144   -1.303533
 O   13.370774   -1.016902   -1.177612
 O    8.449326   -3.858301    8.998812
 O   10.353192   -2.743193    9.124733
 O    6.688000   -2.841399    6.643588
 O   11.453129    2.108144    9.124733
 O   13.370774    1.016902    8.998812
 O   11.453129   -2.108144    6.517667
 O   13.370774   -1.016902    6.643588
 O    3.697976   12.087881   -1.177612
 O    5.601842   10.972773   -1.303533
 O    6.701779   10.337724    1.303533
 O    8.619424    9.246481    1.177612
 O    1.936650   11.070979    1.177612
 O    8.619424    7.212678   -1.177612
 O    3.697976   12.087881    6.643588
 O    5.601842   10.972773    6.517667
 O    6.701779   10.337724    9.124733
 O    8.619424    9.246481    8.998812
 O    1.936650   11.070979    8.998812
 O    8.619424    7.212678    6.643588
 O    3.480839   -2.743193    1.303533
 O    5.386605   -3.843488    1.303533
 O    3.480839   -2.743193    9.124733
 O    5.386605   -3.843488    9.124733
 O   -1.270511   10.972773   -1.303533
 O    0.635256   12.073068   -1.303533
 O   -1.270511   10.972773    6.517667
 O    0.635256   12.073068    6.517667
 O   -6.021861    2.743193   -1.303533
 O   -4.116094    1.642898   -1.303533
 O   -6.021861    2.743193    6.517667
 O   -4.116094    1.642898    6.517667
 O   10.137955    4.386091    1.303533
 O   10.137955    6.586681    1.303533
 O   10.137955    4.386091    9.124733
 O   10.137955    6.586681    9.124733
